// Generated for: spectre
// Design Netlist Generated on: Feb 24 13:51:47 2023
// Design library name: ece483_sp23
// Design cell name: tb_mp3
// Design view name: schematic
simulator lang=spectre
global 0
