// Generated for: spectre
// Design Netlist Generated on: Mar 29 15:26:33 2023
// Design library name: ece483_sp23
// Design cell name: tb_mp4
// Design view name: schematic
simulator lang=spectre
global 0
