// Generated for: spectre
// Design Netlist Generated on: Mar 28 15:02:02 2023
// Design library name: ece483_sp23
// Design cell name: tb_mp4_test
// Design view name: schematic
simulator lang=spectre
global 0
